/*---------------------------------------------------------------------------*\
| =========                 |                                                 |
| \\      /  F ield         | OpenFOAM: The Open Source CFD Toolbox           |
|  \\    /   O peration     | Version:  2206                                  |
|   \\  /    A nd           | Website:  www.openfoam.com                      |
|    \\/     M anipulation  |                                                 |
\*---------------------------------------------------------------------------*/
Build  : _8993af73-20221106 OPENFOAM=2206 patch=221104 version=2206
Arch   : "LSB;label=32;scalar=64"
Exec   : reconstructPar
Date   : Dec 05 2023
Time   : 12:01:42
Host   : TUE037007
PID    : 47096
I/O    : uncollated
Case   : /home/sschepers/Codes/OpenFOAM/FGMFoam/PV_PVvar/testcases/laminarFlamelet/B-Results
nProcs : 1
trapFpe: Floating point exception trapping enabled (FOAM_SIGFPE).
fileModificationChecking : Monitoring run-time modified files using timeStampMaster (fileModificationSkew 5, maxFileModificationPolls 20)
allowSystemOperations : Allowing user-supplied system call operations

// * * * * * * * * * * * * * * * * * * * * * * * * * * * * * * * * * * * * * //
Create time



Reconstructing fields
region=region0

Time = 2e-07

Reconstructing FV fields

    Reconstructing volScalarFields

        DPV
        PV
        PVsourcePV
        PVvar
        T
        alpha
        mu
        p
        rho
        sourcePV

    Reconstructing volVectorFields

        U

    Reconstructing surfaceScalarFields

        phi

Reconstructing point fields

No point fields

No lagrangian fields

No FA fields

Time = 4e-07

Reconstructing FV fields

    Reconstructing volScalarFields

        DPV
        PV
        PVsourcePV
        PVvar
        T
        alpha
        mu
        p
        rho
        sourcePV

    Reconstructing volVectorFields

        U

    Reconstructing surfaceScalarFields

        phi

Reconstructing point fields

No point fields

No lagrangian fields

No FA fields

Time = 6e-07

Reconstructing FV fields

    Reconstructing volScalarFields

        DPV
        PV
        PVsourcePV
        PVvar
        T
        alpha
        mu
        p
        rho
        sourcePV

    Reconstructing volVectorFields

        U

    Reconstructing surfaceScalarFields

        phi

Reconstructing point fields

No point fields

No lagrangian fields

No FA fields

Time = 8e-07

Reconstructing FV fields

    Reconstructing volScalarFields

        DPV
        PV
        PVsourcePV
        PVvar
        T
        alpha
        mu
        p
        rho
        sourcePV

    Reconstructing volVectorFields

        U

    Reconstructing surfaceScalarFields

        phi

Reconstructing point fields

No point fields

No lagrangian fields

No FA fields

Time = 1e-06

Reconstructing FV fields

    Reconstructing volScalarFields

        DPV
        PV
        PVsourcePV
        PVvar
        T
        alpha
        mu
        p
        rho
        sourcePV

    Reconstructing volVectorFields

        U

    Reconstructing surfaceScalarFields

        phi

Reconstructing point fields

No point fields

No lagrangian fields

No FA fields

Time = 1.2e-06

Reconstructing FV fields

    Reconstructing volScalarFields

        DPV
        PV
        PVsourcePV
        PVvar
        T
        alpha
        mu
        p
        rho
        sourcePV

    Reconstructing volVectorFields

        U

    Reconstructing surfaceScalarFields

        phi

Reconstructing point fields

No point fields

No lagrangian fields

No FA fields

Time = 1.4e-06

Reconstructing FV fields

    Reconstructing volScalarFields

        DPV
        PV
        PVsourcePV
        PVvar
        T
        alpha
        mu
        p
        rho
        sourcePV

    Reconstructing volVectorFields

        U

    Reconstructing surfaceScalarFields

        phi

Reconstructing point fields

No point fields

No lagrangian fields

No FA fields

Time = 1.6e-06

Reconstructing FV fields

    Reconstructing volScalarFields

        DPV
        PV
        PVsourcePV
        PVvar
        T
        alpha
        mu
        p
        rho
        sourcePV

    Reconstructing volVectorFields

        U

    Reconstructing surfaceScalarFields

        phi

Reconstructing point fields

No point fields

No lagrangian fields

No FA fields

Time = 1.8e-06

Reconstructing FV fields

    Reconstructing volScalarFields

        DPV
        PV
        PVsourcePV
        PVvar
        T
        alpha
        mu
        p
        rho
        sourcePV

    Reconstructing volVectorFields

        U

    Reconstructing surfaceScalarFields

        phi

Reconstructing point fields

No point fields

No lagrangian fields

No FA fields

Time = 2e-06

Reconstructing FV fields

    Reconstructing volScalarFields

        DPV
        PV
        PVsourcePV
        PVvar
        T
        alpha
        mu
        p
        rho
        sourcePV

    Reconstructing volVectorFields

        U

    Reconstructing surfaceScalarFields

        phi

Reconstructing point fields

No point fields

No lagrangian fields

No FA fields

Time = 2.2e-06

Reconstructing FV fields

    Reconstructing volScalarFields

        DPV
        PV
        PVsourcePV
        PVvar
        T
        alpha
        mu
        p
        rho
        sourcePV

    Reconstructing volVectorFields

        U

    Reconstructing surfaceScalarFields

        phi

Reconstructing point fields

No point fields

No lagrangian fields

No FA fields

Time = 2.4e-06

Reconstructing FV fields

    Reconstructing volScalarFields

        DPV
        PV
        PVsourcePV
        PVvar
        T
        alpha
        mu
        p
        rho
        sourcePV

    Reconstructing volVectorFields

        U

    Reconstructing surfaceScalarFields

        phi

Reconstructing point fields

No point fields

No lagrangian fields

No FA fields

Time = 2.6e-06

Reconstructing FV fields

    Reconstructing volScalarFields

        DPV
        PV
        PVsourcePV
        PVvar
        T
        alpha
        mu
        p
        rho
        sourcePV

    Reconstructing volVectorFields

        U

    Reconstructing surfaceScalarFields

        phi

Reconstructing point fields

No point fields

No lagrangian fields

No FA fields

Time = 2.8e-06

Reconstructing FV fields

    Reconstructing volScalarFields

        DPV
        PV
        PVsourcePV
        PVvar
        T
        alpha
        mu
        p
        rho
        sourcePV

    Reconstructing volVectorFields

        U

    Reconstructing surfaceScalarFields

        phi

Reconstructing point fields

No point fields

No lagrangian fields

No FA fields

Time = 3e-06

Reconstructing FV fields

    Reconstructing volScalarFields

        DPV
        PV
        PVsourcePV
        PVvar
        T
        alpha
        mu
        p
        rho
        sourcePV

    Reconstructing volVectorFields

        U

    Reconstructing surfaceScalarFields

        phi

Reconstructing point fields

No point fields

No lagrangian fields

No FA fields

Time = 3.2e-06

Reconstructing FV fields

    Reconstructing volScalarFields

        DPV
        PV
        PVsourcePV
        PVvar
        T
        alpha
        mu
        p
        rho
        sourcePV

    Reconstructing volVectorFields

        U

    Reconstructing surfaceScalarFields

        phi

Reconstructing point fields

No point fields

No lagrangian fields

No FA fields

Time = 3.4e-06

Reconstructing FV fields

    Reconstructing volScalarFields

        DPV
        PV
        PVsourcePV
        PVvar
        T
        alpha
        mu
        p
        rho
        sourcePV

    Reconstructing volVectorFields

        U

    Reconstructing surfaceScalarFields

        phi

Reconstructing point fields

No point fields

No lagrangian fields

No FA fields

Time = 3.6e-06

Reconstructing FV fields

    Reconstructing volScalarFields

        DPV
        PV
        PVsourcePV
        PVvar
        T
        alpha
        mu
        p
        rho
        sourcePV

    Reconstructing volVectorFields

        U

    Reconstructing surfaceScalarFields

        phi

Reconstructing point fields

No point fields

No lagrangian fields

No FA fields

Time = 3.8e-06

Reconstructing FV fields

    Reconstructing volScalarFields

        DPV
        PV
        PVsourcePV
        PVvar
        T
        alpha
        mu
        p
        rho
        sourcePV

    Reconstructing volVectorFields

        U

    Reconstructing surfaceScalarFields

        phi

Reconstructing point fields

No point fields

No lagrangian fields

No FA fields

Time = 4e-06

Reconstructing FV fields

    Reconstructing volScalarFields

        DPV
        PV
        PVsourcePV
        PVvar
        T
        alpha
        mu
        p
        rho
        sourcePV

    Reconstructing volVectorFields

        U

    Reconstructing surfaceScalarFields

        phi

Reconstructing point fields

No point fields

No lagrangian fields

No FA fields

Time = 4.2e-06

Reconstructing FV fields

    Reconstructing volScalarFields

        DPV
        PV
        PVsourcePV
        PVvar
        T
        alpha
        mu
        p
        rho
        sourcePV

    Reconstructing volVectorFields

        U

    Reconstructing surfaceScalarFields

        phi

Reconstructing point fields

No point fields

No lagrangian fields

No FA fields

Time = 4.4e-06

Reconstructing FV fields

    Reconstructing volScalarFields

        DPV
        PV
        PVsourcePV
        PVvar
        T
        alpha
        mu
        p
        rho
        sourcePV

    Reconstructing volVectorFields

        U

    Reconstructing surfaceScalarFields

        phi

Reconstructing point fields

No point fields

No lagrangian fields

No FA fields

Time = 4.6e-06

Reconstructing FV fields

    Reconstructing volScalarFields

        DPV
        PV
        PVsourcePV
        PVvar
        T
        alpha
        mu
        p
        rho
        sourcePV

    Reconstructing volVectorFields

        U

    Reconstructing surfaceScalarFields

        phi

Reconstructing point fields

No point fields

No lagrangian fields

No FA fields

Time = 4.8e-06

Reconstructing FV fields

    Reconstructing volScalarFields

        DPV
        PV
        PVsourcePV
        PVvar
        T
        alpha
        mu
        p
        rho
        sourcePV

    Reconstructing volVectorFields

        U

    Reconstructing surfaceScalarFields

        phi

Reconstructing point fields

No point fields

No lagrangian fields

No FA fields

Time = 5e-06

Reconstructing FV fields

    Reconstructing volScalarFields

        DPV
        PV
        PVsourcePV
        PVvar
        T
        alpha
        mu
        p
        rho
        sourcePV

    Reconstructing volVectorFields

        U

    Reconstructing surfaceScalarFields

        phi

Reconstructing point fields

No point fields

No lagrangian fields

No FA fields

Time = 5.2e-06

Reconstructing FV fields

    Reconstructing volScalarFields

        DPV
        PV
        PVsourcePV
        PVvar
        T
        alpha
        mu
        p
        rho
        sourcePV

    Reconstructing volVectorFields

        U

    Reconstructing surfaceScalarFields

        phi

Reconstructing point fields

No point fields

No lagrangian fields

No FA fields

Time = 5.4e-06

Reconstructing FV fields

    Reconstructing volScalarFields

        DPV
        PV
        PVsourcePV
        PVvar
        T
        alpha
        mu
        p
        rho
        sourcePV

    Reconstructing volVectorFields

        U

    Reconstructing surfaceScalarFields

        phi

Reconstructing point fields

No point fields

No lagrangian fields

No FA fields

Time = 5.6e-06

Reconstructing FV fields

    Reconstructing volScalarFields

        DPV
        PV
        PVsourcePV
        PVvar
        T
        alpha
        mu
        p
        rho
        sourcePV

    Reconstructing volVectorFields

        U

    Reconstructing surfaceScalarFields

        phi

Reconstructing point fields

No point fields

No lagrangian fields

No FA fields

Time = 5.8e-06

Reconstructing FV fields

    Reconstructing volScalarFields

        DPV
        PV
        PVsourcePV
        PVvar
        T
        alpha
        mu
        p
        rho
        sourcePV

    Reconstructing volVectorFields

        U

    Reconstructing surfaceScalarFields

        phi

Reconstructing point fields

No point fields

No lagrangian fields

No FA fields

Time = 6e-06

Reconstructing FV fields

    Reconstructing volScalarFields

        DPV
        PV
        PVsourcePV
        PVvar
        T
        alpha
        mu
        p
        rho
        sourcePV

    Reconstructing volVectorFields

        U

    Reconstructing surfaceScalarFields

        phi

Reconstructing point fields

No point fields

No lagrangian fields

No FA fields

Time = 6.2e-06

Reconstructing FV fields

    Reconstructing volScalarFields

        DPV
        PV
        PVsourcePV
        PVvar
        T
        alpha
        mu
        p
        rho
        sourcePV

    Reconstructing volVectorFields

        U

    Reconstructing surfaceScalarFields

        phi

Reconstructing point fields

No point fields

No lagrangian fields

No FA fields

Time = 6.4e-06

Reconstructing FV fields

    Reconstructing volScalarFields

        DPV
        PV
        PVsourcePV
        PVvar
        T
        alpha
        mu
        p
        rho
        sourcePV

    Reconstructing volVectorFields

        U

    Reconstructing surfaceScalarFields

        phi

Reconstructing point fields

No point fields

No lagrangian fields

No FA fields

Time = 6.6e-06

Reconstructing FV fields

    Reconstructing volScalarFields

        DPV
        PV
        PVsourcePV
        PVvar
        T
        alpha
        mu
        p
        rho
        sourcePV

    Reconstructing volVectorFields

        U

    Reconstructing surfaceScalarFields

        phi

Reconstructing point fields

No point fields

No lagrangian fields

No FA fields

Time = 6.8e-06

Reconstructing FV fields

    Reconstructing volScalarFields

        DPV
        PV
        PVsourcePV
        PVvar
        T
        alpha
        mu
        p
        rho
        sourcePV

    Reconstructing volVectorFields

        U

    Reconstructing surfaceScalarFields

        phi

Reconstructing point fields

No point fields

No lagrangian fields

No FA fields

Time = 7e-06

Reconstructing FV fields

    Reconstructing volScalarFields

        DPV
        PV
        PVsourcePV
        PVvar
        T
        alpha
        mu
        p
        rho
        sourcePV

    Reconstructing volVectorFields

        U

    Reconstructing surfaceScalarFields

        phi

Reconstructing point fields

No point fields

No lagrangian fields

No FA fields

Time = 7.2e-06

Reconstructing FV fields

    Reconstructing volScalarFields

        DPV
        PV
        PVsourcePV
        PVvar
        T
        alpha
        mu
        p
        rho
        sourcePV

    Reconstructing volVectorFields

        U

    Reconstructing surfaceScalarFields

        phi

Reconstructing point fields

No point fields

No lagrangian fields

No FA fields

Time = 7.4e-06

Reconstructing FV fields

    Reconstructing volScalarFields

        DPV
        PV
        PVsourcePV
        PVvar
        T
        alpha
        mu
        p
        rho
        sourcePV

    Reconstructing volVectorFields

        U

    Reconstructing surfaceScalarFields

        phi

Reconstructing point fields

No point fields

No lagrangian fields

No FA fields

Time = 7.6e-06

Reconstructing FV fields

    Reconstructing volScalarFields

        DPV
        PV
        PVsourcePV
        PVvar
        T
        alpha
        mu
        p
        rho
        sourcePV

    Reconstructing volVectorFields

        U

    Reconstructing surfaceScalarFields

        phi

Reconstructing point fields

No point fields

No lagrangian fields

No FA fields

Time = 7.8e-06

Reconstructing FV fields

    Reconstructing volScalarFields

        DPV
        PV
        PVsourcePV
        PVvar
        T
        alpha
        mu
        p
        rho
        sourcePV

    Reconstructing volVectorFields

        U

    Reconstructing surfaceScalarFields

        phi

Reconstructing point fields

No point fields

No lagrangian fields

No FA fields

Time = 8e-06

Reconstructing FV fields

    Reconstructing volScalarFields

        DPV
        PV
        PVsourcePV
        PVvar
        T
        alpha
        mu
        p
        rho
        sourcePV

    Reconstructing volVectorFields

        U

    Reconstructing surfaceScalarFields

        phi

Reconstructing point fields

No point fields

No lagrangian fields

No FA fields

Time = 8.2e-06

Reconstructing FV fields

    Reconstructing volScalarFields

        DPV
        PV
        PVsourcePV
        PVvar
        T
        alpha
        mu
        p
        rho
        sourcePV

    Reconstructing volVectorFields

        U

    Reconstructing surfaceScalarFields

        phi

Reconstructing point fields

No point fields

No lagrangian fields

No FA fields

Time = 8.4e-06

Reconstructing FV fields

    Reconstructing volScalarFields

        DPV
        PV
        PVsourcePV
        PVvar
        T
        alpha
        mu
        p
        rho
        sourcePV

    Reconstructing volVectorFields

        U

    Reconstructing surfaceScalarFields

        phi

Reconstructing point fields

No point fields

No lagrangian fields

No FA fields

Time = 8.6e-06

Reconstructing FV fields

    Reconstructing volScalarFields

        DPV
        PV
        PVsourcePV
        PVvar
        T
        alpha
        mu
        p
        rho
        sourcePV

    Reconstructing volVectorFields

        U

    Reconstructing surfaceScalarFields

        phi

Reconstructing point fields

No point fields

No lagrangian fields

No FA fields

Time = 8.8e-06

Reconstructing FV fields

    Reconstructing volScalarFields

        DPV
        PV
        PVsourcePV
        PVvar
        T
        alpha
        mu
        p
        rho
        sourcePV

    Reconstructing volVectorFields

        U

    Reconstructing surfaceScalarFields

        phi

Reconstructing point fields

No point fields

No lagrangian fields

No FA fields

Time = 9e-06

Reconstructing FV fields

    Reconstructing volScalarFields

        DPV
        PV
        PVsourcePV
        PVvar
        T
        alpha
        mu
        p
        rho
        sourcePV

    Reconstructing volVectorFields

        U

    Reconstructing surfaceScalarFields

        phi

Reconstructing point fields

No point fields

No lagrangian fields

No FA fields

Time = 9.2e-06

Reconstructing FV fields

    Reconstructing volScalarFields

        DPV
        PV
        PVsourcePV
        PVvar
        T
        alpha
        mu
        p
        rho
        sourcePV

    Reconstructing volVectorFields

        U

    Reconstructing surfaceScalarFields

        phi

Reconstructing point fields

No point fields

No lagrangian fields

No FA fields

Time = 9.4e-06

Reconstructing FV fields

    Reconstructing volScalarFields

        DPV
        PV
        PVsourcePV
        PVvar
        T
        alpha
        mu
        p
        rho
        sourcePV

    Reconstructing volVectorFields

        U

    Reconstructing surfaceScalarFields

        phi

Reconstructing point fields

No point fields

No lagrangian fields

No FA fields

Time = 9.6e-06

Reconstructing FV fields

    Reconstructing volScalarFields

        DPV
        PV
        PVsourcePV
        PVvar
        T
        alpha
        mu
        p
        rho
        sourcePV

    Reconstructing volVectorFields

        U

    Reconstructing surfaceScalarFields

        phi

Reconstructing point fields

No point fields

No lagrangian fields

No FA fields

Time = 9.8e-06

Reconstructing FV fields

    Reconstructing volScalarFields

        DPV
        PV
        PVsourcePV
        PVvar
        T
        alpha
        mu
        p
        rho
        sourcePV

    Reconstructing volVectorFields

        U

    Reconstructing surfaceScalarFields

        phi

Reconstructing point fields

No point fields

No lagrangian fields

No FA fields

Time = 1e-05

Reconstructing FV fields

    Reconstructing volScalarFields

        DPV
        PV
        PVsourcePV
        PVvar
        T
        alpha
        mu
        p
        rho
        sourcePV

    Reconstructing volVectorFields

        U

    Reconstructing surfaceScalarFields

        phi

Reconstructing point fields

No point fields

No lagrangian fields

No FA fields

Time = 1.02e-05

Reconstructing FV fields

    Reconstructing volScalarFields

        DPV
        PV
        PVsourcePV
        PVvar
        T
        alpha
        mu
        p
        rho
        sourcePV

    Reconstructing volVectorFields

        U

    Reconstructing surfaceScalarFields

        phi

Reconstructing point fields

No point fields

No lagrangian fields

No FA fields

Time = 1.04e-05

Reconstructing FV fields

    Reconstructing volScalarFields

        DPV
        PV
        PVsourcePV
        PVvar
        T
        alpha
        mu
        p
        rho
        sourcePV

    Reconstructing volVectorFields

        U

    Reconstructing surfaceScalarFields

        phi

Reconstructing point fields

No point fields

No lagrangian fields

No FA fields

Time = 1.06e-05

Reconstructing FV fields

    Reconstructing volScalarFields

        DPV
        PV
        PVsourcePV
        PVvar
        T
        alpha
        mu
        p
        rho
        sourcePV

    Reconstructing volVectorFields

        U

    Reconstructing surfaceScalarFields

        phi

Reconstructing point fields

No point fields

No lagrangian fields

No FA fields

Time = 1.08e-05

Reconstructing FV fields

    Reconstructing volScalarFields

        DPV
        PV
        PVsourcePV
        PVvar
        T
        alpha
        mu
        p
        rho
        sourcePV

    Reconstructing volVectorFields

        U

    Reconstructing surfaceScalarFields

        phi

Reconstructing point fields

No point fields

No lagrangian fields

No FA fields

Time = 1.1e-05

Reconstructing FV fields

    Reconstructing volScalarFields

        DPV
        PV
        PVsourcePV
        PVvar
        T
        alpha
        mu
        p
        rho
        sourcePV

    Reconstructing volVectorFields

        U

    Reconstructing surfaceScalarFields

        phi

Reconstructing point fields

No point fields

No lagrangian fields

No FA fields

Time = 1.12e-05

Reconstructing FV fields

    Reconstructing volScalarFields

        DPV
        PV
        PVsourcePV
        PVvar
        T
        alpha
        mu
        p
        rho
        sourcePV

    Reconstructing volVectorFields

        U

    Reconstructing surfaceScalarFields

        phi

Reconstructing point fields

No point fields

No lagrangian fields

No FA fields

Time = 1.14e-05

Reconstructing FV fields

    Reconstructing volScalarFields

        DPV
        PV
        PVsourcePV
        PVvar
        T
        alpha
        mu
        p
        rho
        sourcePV

    Reconstructing volVectorFields

        U

    Reconstructing surfaceScalarFields

        phi

Reconstructing point fields

No point fields

No lagrangian fields

No FA fields

Time = 1.16e-05

Reconstructing FV fields

    Reconstructing volScalarFields

        DPV
        PV
        PVsourcePV
        PVvar
        T
        alpha
        mu
        p
        rho
        sourcePV

    Reconstructing volVectorFields

        U

    Reconstructing surfaceScalarFields

        phi

Reconstructing point fields

No point fields

No lagrangian fields

No FA fields

Time = 1.18e-05

Reconstructing FV fields

    Reconstructing volScalarFields

        DPV
        PV
        PVsourcePV
        PVvar
        T
        alpha
        mu
        p
        rho
        sourcePV

    Reconstructing volVectorFields

        U

    Reconstructing surfaceScalarFields

        phi

Reconstructing point fields

No point fields

No lagrangian fields

No FA fields

Time = 1.2e-05

Reconstructing FV fields

    Reconstructing volScalarFields

        DPV
        PV
        PVsourcePV
        PVvar
        T
        alpha
        mu
        p
        rho
        sourcePV

    Reconstructing volVectorFields

        U

    Reconstructing surfaceScalarFields

        phi

Reconstructing point fields

No point fields

No lagrangian fields

No FA fields

Time = 1.22e-05

Reconstructing FV fields

    Reconstructing volScalarFields

        DPV
        PV
        PVsourcePV
        PVvar
        T
        alpha
        mu
        p
        rho
        sourcePV

    Reconstructing volVectorFields

        U

    Reconstructing surfaceScalarFields

        phi

Reconstructing point fields

No point fields

No lagrangian fields

No FA fields

Time = 1.24e-05

Reconstructing FV fields

    Reconstructing volScalarFields

        DPV
        PV
        PVsourcePV
        PVvar
        T
        alpha
        mu
        p
        rho
        sourcePV

    Reconstructing volVectorFields

        U

    Reconstructing surfaceScalarFields

        phi

Reconstructing point fields

No point fields

No lagrangian fields

No FA fields

Time = 1.26e-05

Reconstructing FV fields

    Reconstructing volScalarFields

        DPV
        PV
        PVsourcePV
        PVvar
        T
        alpha
        mu
        p
        rho
        sourcePV

    Reconstructing volVectorFields

        U

    Reconstructing surfaceScalarFields

        phi

Reconstructing point fields

No point fields

No lagrangian fields

No FA fields

Time = 1.28e-05

Reconstructing FV fields

    Reconstructing volScalarFields

        DPV
        PV
        PVsourcePV
        PVvar
        T
        alpha
        mu
        p
        rho
        sourcePV

    Reconstructing volVectorFields

        U

    Reconstructing surfaceScalarFields

        phi

Reconstructing point fields

No point fields

No lagrangian fields

No FA fields

Time = 1.3e-05

Reconstructing FV fields

    Reconstructing volScalarFields

        DPV
        PV
        PVsourcePV
        PVvar
        T
        alpha
        mu
        p
        rho
        sourcePV

    Reconstructing volVectorFields

        U

    Reconstructing surfaceScalarFields

        phi

Reconstructing point fields

No point fields

No lagrangian fields

No FA fields

Time = 1.32e-05

Reconstructing FV fields

    Reconstructing volScalarFields

        DPV
        PV
        PVsourcePV
        PVvar
        T
        alpha
        mu
        p
        rho
        sourcePV

    Reconstructing volVectorFields

        U

    Reconstructing surfaceScalarFields

        phi

Reconstructing point fields

No point fields

No lagrangian fields

No FA fields

Time = 1.34e-05

Reconstructing FV fields

    Reconstructing volScalarFields

        DPV
        PV
        PVsourcePV
        PVvar
        T
        alpha
        mu
        p
        rho
        sourcePV

    Reconstructing volVectorFields

        U

    Reconstructing surfaceScalarFields

        phi

Reconstructing point fields

No point fields

No lagrangian fields

No FA fields

Time = 1.36e-05

Reconstructing FV fields

    Reconstructing volScalarFields

        DPV
        PV
        PVsourcePV
        PVvar
        T
        alpha
        mu
        p
        rho
        sourcePV

    Reconstructing volVectorFields

        U

    Reconstructing surfaceScalarFields

        phi

Reconstructing point fields

No point fields

No lagrangian fields

No FA fields

Time = 1.38e-05

Reconstructing FV fields

    Reconstructing volScalarFields

        DPV
        PV
        PVsourcePV
        PVvar
        T
        alpha
        mu
        p
        rho
        sourcePV

    Reconstructing volVectorFields

        U

    Reconstructing surfaceScalarFields

        phi

Reconstructing point fields

No point fields

No lagrangian fields

No FA fields

Time = 1.4e-05

Reconstructing FV fields

    Reconstructing volScalarFields

        DPV
        PV
        PVsourcePV
        PVvar
        T
        alpha
        mu
        p
        rho
        sourcePV

    Reconstructing volVectorFields

        U

    Reconstructing surfaceScalarFields

        phi

Reconstructing point fields

No point fields

No lagrangian fields

No FA fields

Time = 1.42e-05

Reconstructing FV fields

    Reconstructing volScalarFields

        DPV
        PV
        PVsourcePV
        PVvar
        T
        alpha
        mu
        p
        rho
        sourcePV

    Reconstructing volVectorFields

        U

    Reconstructing surfaceScalarFields

        phi

Reconstructing point fields

No point fields

No lagrangian fields

No FA fields

Time = 1.44e-05

Reconstructing FV fields

    Reconstructing volScalarFields

        DPV
        PV
        PVsourcePV
        PVvar
        T
        alpha
        mu
        p
        rho
        sourcePV

    Reconstructing volVectorFields

        U

    Reconstructing surfaceScalarFields

        phi

Reconstructing point fields

No point fields

No lagrangian fields

No FA fields

Time = 1.46e-05

Reconstructing FV fields

    Reconstructing volScalarFields

        DPV
        PV
        PVsourcePV
        PVvar
        T
        alpha
        mu
        p
        rho
        sourcePV

    Reconstructing volVectorFields

        U

    Reconstructing surfaceScalarFields

        phi

Reconstructing point fields

No point fields

No lagrangian fields

No FA fields

Time = 1.48e-05

Reconstructing FV fields

    Reconstructing volScalarFields

        DPV
        PV
        PVsourcePV
        PVvar
        T
        alpha
        mu
        p
        rho
        sourcePV

    Reconstructing volVectorFields

        U

    Reconstructing surfaceScalarFields

        phi

Reconstructing point fields

No point fields

No lagrangian fields

No FA fields

Time = 1.5e-05

Reconstructing FV fields

    Reconstructing volScalarFields

        DPV
        PV
        PVsourcePV
        PVvar
        T
        alpha
        mu
        p
        rho
        sourcePV

    Reconstructing volVectorFields

        U

    Reconstructing surfaceScalarFields

        phi

Reconstructing point fields

No point fields

No lagrangian fields

No FA fields

Time = 1.52e-05

Reconstructing FV fields

    Reconstructing volScalarFields

        DPV
        PV
        PVsourcePV
        PVvar
        T
        alpha
        mu
        p
        rho
        sourcePV

    Reconstructing volVectorFields

        U

    Reconstructing surfaceScalarFields

        phi

Reconstructing point fields

No point fields

No lagrangian fields

No FA fields

Time = 1.54e-05

Reconstructing FV fields

    Reconstructing volScalarFields

        DPV
        PV
        PVsourcePV
        PVvar
        T
        alpha
        mu
        p
        rho
        sourcePV

    Reconstructing volVectorFields

        U

    Reconstructing surfaceScalarFields

        phi

Reconstructing point fields

No point fields

No lagrangian fields

No FA fields

Time = 1.56e-05

Reconstructing FV fields

    Reconstructing volScalarFields

        DPV
        PV
        PVsourcePV
        PVvar
        T
        alpha
        mu
        p
        rho
        sourcePV

    Reconstructing volVectorFields

        U

    Reconstructing surfaceScalarFields

        phi

Reconstructing point fields

No point fields

No lagrangian fields

No FA fields

Time = 1.58e-05

Reconstructing FV fields

    Reconstructing volScalarFields

        DPV
        PV
        PVsourcePV
        PVvar
        T
        alpha
        mu
        p
        rho
        sourcePV

    Reconstructing volVectorFields

        U

    Reconstructing surfaceScalarFields

        phi

Reconstructing point fields

No point fields

No lagrangian fields

No FA fields

Time = 1.6e-05

Reconstructing FV fields

    Reconstructing volScalarFields

        DPV
        PV
        PVsourcePV
        PVvar
        T
        alpha
        mu
        p
        rho
        sourcePV

    Reconstructing volVectorFields

        U

    Reconstructing surfaceScalarFields

        phi

Reconstructing point fields

No point fields

No lagrangian fields

No FA fields

Time = 1.62e-05

Reconstructing FV fields

    Reconstructing volScalarFields

        DPV
        PV
        PVsourcePV
        PVvar
        T
        alpha
        mu
        p
        rho
        sourcePV

    Reconstructing volVectorFields

        U

    Reconstructing surfaceScalarFields

        phi

Reconstructing point fields

No point fields

No lagrangian fields

No FA fields

Time = 1.64e-05

Reconstructing FV fields

    Reconstructing volScalarFields

        DPV
        PV
        PVsourcePV
        PVvar
        T
        alpha
        mu
        p
        rho
        sourcePV

    Reconstructing volVectorFields

        U

    Reconstructing surfaceScalarFields

        phi

Reconstructing point fields

No point fields

No lagrangian fields

No FA fields

Time = 1.66e-05

Reconstructing FV fields

    Reconstructing volScalarFields

        DPV
        PV
        PVsourcePV
        PVvar
        T
        alpha
        mu
        p
        rho
        sourcePV

    Reconstructing volVectorFields

        U

    Reconstructing surfaceScalarFields

        phi

Reconstructing point fields

No point fields

No lagrangian fields

No FA fields

Time = 1.68e-05

Reconstructing FV fields

    Reconstructing volScalarFields

        DPV
        PV
        PVsourcePV
        PVvar
        T
        alpha
        mu
        p
        rho
        sourcePV

    Reconstructing volVectorFields

        U

    Reconstructing surfaceScalarFields

        phi

Reconstructing point fields

No point fields

No lagrangian fields

No FA fields

Time = 1.7e-05

Reconstructing FV fields

    Reconstructing volScalarFields

        DPV
        PV
        PVsourcePV
        PVvar
        T
        alpha
        mu
        p
        rho
        sourcePV

    Reconstructing volVectorFields

        U

    Reconstructing surfaceScalarFields

        phi

Reconstructing point fields

No point fields

No lagrangian fields

No FA fields

Time = 1.72e-05

Reconstructing FV fields

    Reconstructing volScalarFields

        DPV
        PV
        PVsourcePV
        PVvar
        T
        alpha
        mu
        p
        rho
        sourcePV

    Reconstructing volVectorFields

        U

    Reconstructing surfaceScalarFields

        phi

Reconstructing point fields

No point fields

No lagrangian fields

No FA fields

Time = 1.74e-05

Reconstructing FV fields

    Reconstructing volScalarFields

        DPV
        PV
        PVsourcePV
        PVvar
        T
        alpha
        mu
        p
        rho
        sourcePV

    Reconstructing volVectorFields

        U

    Reconstructing surfaceScalarFields

        phi

Reconstructing point fields

No point fields

No lagrangian fields

No FA fields

Time = 1.76e-05

Reconstructing FV fields

    Reconstructing volScalarFields

        DPV
        PV
        PVsourcePV
        PVvar
        T
        alpha
        mu
        p
        rho
        sourcePV

    Reconstructing volVectorFields

        U

    Reconstructing surfaceScalarFields

        phi

Reconstructing point fields

No point fields

No lagrangian fields

No FA fields

Time = 1.78e-05

Reconstructing FV fields

    Reconstructing volScalarFields

        DPV
        PV
        PVsourcePV
        PVvar
        T
        alpha
        mu
        p
        rho
        sourcePV

    Reconstructing volVectorFields

        U

    Reconstructing surfaceScalarFields

        phi

Reconstructing point fields

No point fields

No lagrangian fields

No FA fields

Time = 1.8e-05

Reconstructing FV fields

    Reconstructing volScalarFields

        DPV
        PV
        PVsourcePV
        PVvar
        T
        alpha
        mu
        p
        rho
        sourcePV

    Reconstructing volVectorFields

        U

    Reconstructing surfaceScalarFields

        phi

Reconstructing point fields

No point fields

No lagrangian fields

No FA fields

Time = 1.82e-05

Reconstructing FV fields

    Reconstructing volScalarFields

        DPV
        PV
        PVsourcePV
        PVvar
        T
        alpha
        mu
        p
        rho
        sourcePV

    Reconstructing volVectorFields

        U

    Reconstructing surfaceScalarFields

        phi

Reconstructing point fields

No point fields

No lagrangian fields

No FA fields

Time = 1.84e-05

Reconstructing FV fields

    Reconstructing volScalarFields

        DPV
        PV
        PVsourcePV
        PVvar
        T
        alpha
        mu
        p
        rho
        sourcePV

    Reconstructing volVectorFields

        U

    Reconstructing surfaceScalarFields

        phi

Reconstructing point fields

No point fields

No lagrangian fields

No FA fields

Time = 1.86e-05

Reconstructing FV fields

    Reconstructing volScalarFields

        DPV
        PV
        PVsourcePV
        PVvar
        T
        alpha
        mu
        p
        rho
        sourcePV

    Reconstructing volVectorFields

        U

    Reconstructing surfaceScalarFields

        phi

Reconstructing point fields

No point fields

No lagrangian fields

No FA fields

Time = 1.88e-05

Reconstructing FV fields

    Reconstructing volScalarFields

        DPV
        PV
        PVsourcePV
        PVvar
        T
        alpha
        mu
        p
        rho
        sourcePV

    Reconstructing volVectorFields

        U

    Reconstructing surfaceScalarFields

        phi

Reconstructing point fields

No point fields

No lagrangian fields

No FA fields

Time = 1.9e-05

Reconstructing FV fields

    Reconstructing volScalarFields

        DPV
        PV
        PVsourcePV
        PVvar
        T
        alpha
        mu
        p
        rho
        sourcePV

    Reconstructing volVectorFields

        U

    Reconstructing surfaceScalarFields

        phi

Reconstructing point fields

No point fields

No lagrangian fields

No FA fields

Time = 1.92e-05

Reconstructing FV fields

    Reconstructing volScalarFields

        DPV
        PV
        PVsourcePV
        PVvar
        T
        alpha
        mu
        p
        rho
        sourcePV

    Reconstructing volVectorFields

        U

    Reconstructing surfaceScalarFields

        phi

Reconstructing point fields

No point fields

No lagrangian fields

No FA fields

Time = 1.94e-05

Reconstructing FV fields

    Reconstructing volScalarFields

        DPV
        PV
        PVsourcePV
        PVvar
        T
        alpha
        mu
        p
        rho
        sourcePV

    Reconstructing volVectorFields

        U

    Reconstructing surfaceScalarFields

        phi

Reconstructing point fields

No point fields

No lagrangian fields

No FA fields

Time = 1.96e-05

Reconstructing FV fields

    Reconstructing volScalarFields

        DPV
        PV
        PVsourcePV
        PVvar
        T
        alpha
        mu
        p
        rho
        sourcePV

    Reconstructing volVectorFields

        U

    Reconstructing surfaceScalarFields

        phi

Reconstructing point fields

No point fields

No lagrangian fields

No FA fields

Time = 1.98e-05

Reconstructing FV fields

    Reconstructing volScalarFields

        DPV
        PV
        PVsourcePV
        PVvar
        T
        alpha
        mu
        p
        rho
        sourcePV

    Reconstructing volVectorFields

        U

    Reconstructing surfaceScalarFields

        phi

Reconstructing point fields

No point fields

No lagrangian fields

No FA fields

Time = 2e-05

Reconstructing FV fields

    Reconstructing volScalarFields

        DPV
        PV
        PVsourcePV
        PVvar
        T
        alpha
        mu
        p
        rho
        sourcePV

    Reconstructing volVectorFields

        U

    Reconstructing surfaceScalarFields

        phi

Reconstructing point fields

No point fields

No lagrangian fields

No FA fields


End

